FoamFile
{
    version     2.0;
    format      ascii;
    class       dictionary;
    object      blockMeshDict;
}

// Exported by SnappyHexMesh GUI add-on for Blender v1.5
// Source file: /path/to/motorBike_003.blend
// Export date: 2024-01-27 10:53:13.981184

scale 1;

vertices
(
    ( -0.825 -0.825 -0.025 )
    ( 2.425 -0.825 -0.025 )
    ( 2.425 0.825 -0.025 )
    ( -0.825 0.825 -0.025 )
    ( -0.825 -0.825 2.025 )
    ( 2.425 -0.825 2.025 ) 
    ( 2.425 0.825 2.025 ) 
    ( -0.825 0.825 2.025 ) 
);

blocks
(
    hex (0 1 2 3 4 5 6 7) (130 66 82) simpleGrading (1 1 1)
);

edges
(
);

boundary
(
    world
    {
        type patch;
        faces
        (
            (3 7 6 2)
            (0 4 7 3)
            (2 6 5 1)
            (1 5 4 0)
            (0 3 2 1)
            (4 5 6 7)
        );
    }
);
