FoamFile
{
    version     2.0;
    format      ascii;
    class       dictionary;
    object      blockMeshDict;
}

// Exported by SnappyHexMesh GUI add-on for Blender v1.5
// Source file: /path/to/motorBike_004.blend
// Export date: 2024-01-27 13:27:51.607121

scale 1;

vertices
(
    ( -0.85 -0.85 -0.05 )
    ( 2.45 -0.85 -0.05 )
    ( 2.45 0.85 -0.05 )
    ( -0.85 0.85 -0.05 )
    ( -0.85 -0.85 2.05 )
    ( 2.45 -0.85 2.05 ) 
    ( 2.45 0.85 2.05 ) 
    ( -0.85 0.85 2.05 ) 
);

blocks
(
    hex (0 1 2 3 4 5 6 7) (66 34 42) simpleGrading (1 1 1)
);

edges
(
);

boundary
(
    world
    {
        type patch;
        faces
        (
            (3 7 6 2)
            (0 4 7 3)
            (2 6 5 1)
            (1 5 4 0)
            (0 3 2 1)
            (4 5 6 7)
        );
    }
);
