FoamFile
{
    version         2;
    format          ascii;
    class           dictionary;
    object          surfaceFeaturesDict;
}

// Exported by SnappyHexMesh GUI add-on for Blender v1.5
// Source file: /path/to/motorBike_003.blend
// Export date: 2024-01-18 20:10:21.857336


walls.stl
{
    extractionMethod extractFromSurface;
    extractFromSurfaceCoeffs { includedAngle 150; }
    writeObj yes;
}

walls_manifold.stl
{
    extractionMethod extractFromSurface;
    extractFromSurfaceCoeffs { includedAngle 150; }
    writeObj yes;
}

walls_nonmanifold.stl
{
    extractionMethod extractFromSurface;
    extractFromSurfaceCoeffs { includedAngle 150; }
    writeObj yes;
}



