FoamFile
{
    version     2.0;
    format      ascii;
    class       dictionary;
    object      decomposeParDict;
}

// Exported by SnappyHexMesh GUI add-on for Blender v1.5
// Source file: /path/to/motorBike_003.blend
// Export date: 2024-01-19 17:19:54.192441

numberOfSubdomains 3;

method          scotch;
// method          simple;

simpleCoeffs
{
    n               (1 1 3);
    delta           0.001;
}

hierarchicalCoeffs
{
    n               (1 1 3);
    delta           0.001;
    order           xyz;
}

manualCoeffs
{
    dataFile        "cellDecomposition";
}
